Circuit: * C:\Users\Daniel\Desktop\SW_Projects\GestureControl\ltspice\CCCV Battery Charger.asc

WARNING: Less than two connections to node VREF_3_7.  This node is used by V2.
Direct Newton iteration failed to find .op point.  (Use ".option noopiter" to skip.)
Starting Gmin stepping
Gmin = 10
Gmin = 1.07374
Gmin = 0.115292
Gmin = 0.0123794
Gmin = 0.00132923
Gmin = 0.000142725
Gmin = 1.5325e-005
Gmin = 1.6455e-006
Gmin = 1.76685e-007
Gmin = 1.89714e-008
Gmin = 2.03704e-009
Gmin = 2.18725e-010
Gmin = 2.34854e-011
Gmin = 2.52173e-012
Gmin = 2.70769e-013
Gmin = 0
Gmin stepping succeeded in finding the operating point.


Date: Sun Feb 07 04:13:22 2021
Total elapsed time: 0.123 seconds.

tnom = 27
temp = 27
method = modified trap
totiter = 5615
traniter = 5002
tranpoints = 1879
accept = 1623
rejected = 256
matrix size = 35
fillins = 16
solver = Normal
Matrix Compiler1: 2.44 KB object code size  0.7/0.4/[0.1]
Matrix Compiler2: 3.30 KB object code size  0.3/0.6/[0.3]

