Circuit: * C:\Users\Daniel\Desktop\SW_Projects\GestureControl\ltspice\CCCV Battery Charger\CCCV Battery Charger.asc

WARNING: Less than two connections to node VREF_4_15.  This node is used by V1.
WARNING: Less than two connections to node VREF_3_9.  This node is used by V2.
Direct Newton iteration failed to find .op point.  (Use ".option noopiter" to skip.)
Starting Gmin stepping
Gmin = 10
Gmin = 1.07374
Gmin = 0.115292
Gmin = 0.0123794
Gmin = 0.00132923
vernier = 0.5
vernier = 0.25
Gmin = 0.000630435
vernier = 0.333333
vernier = 0.444444
Gmin = 0.00027983
vernier = 0.592592
Gmin = 8.01452e-005
vernier = 0.790123
vernier = 1
Gmin = 1.11306e-005
Gmin = 1.19514e-006
Gmin = 1.28327e-007
Gmin = 1.3779e-008
Gmin = 1.47951e-009
Gmin = 1.58861e-010
Gmin = 1.70576e-011
Gmin = 1.83154e-012
Gmin = 1.9666e-013
Gmin = 0
Gmin stepping succeeded in finding the operating point.


Date: Thu Feb 25 23:34:51 2021
Total elapsed time: 0.156 seconds.

tnom = 27
temp = 27
method = modified trap
totiter = 3740
traniter = 2927
tranpoints = 1299
accept = 1223
rejected = 76
matrix size = 35
fillins = 6
solver = Normal
Matrix Compiler1: 1.97 KB object code size  0.5/0.4/[0.1]
Matrix Compiler2: 3.08 KB object code size  0.4/0.6/[0.3]

