Circuit: * C:\Users\Daniel\Desktop\SW_Projects\GestureControl\ltspice\CCCV Battery Charger.asc

WARNING: Less than two connections to node VREF_4_15.  This node is used by V1.
WARNING: Less than two connections to node VREF_3_9.  This node is used by V2.
Direct Newton iteration failed to find .op point.  (Use ".option noopiter" to skip.)
Starting Gmin stepping
Gmin = 10
Gmin = 1.07374
Gmin = 0.115292
Gmin = 0.0123794
Gmin = 0.00132923
vernier = 0.5
vernier = 0.666667
Gmin = 0.000404641
vernier = 0.888888
Gmin = 6.86413e-005
vernier = 1
Gmin = 7.53781e-006
Gmin = 8.09366e-007
Gmin = 8.6905e-008
Gmin = 9.33136e-009
Gmin = 1.00195e-009
Gmin = 1.07583e-010
Gmin = 1.15517e-011
Gmin = 1.24035e-012
Gmin = 1.33182e-013
Gmin = 0
Gmin stepping succeeded in finding the operating point.


Date: Wed Feb 10 15:01:37 2021
Total elapsed time: 0.121 seconds.

tnom = 27
temp = 27
method = modified trap
totiter = 3602
traniter = 2874
tranpoints = 1303
accept = 1226
rejected = 77
matrix size = 37
fillins = 12
solver = Normal
Matrix Compiler1: 2.25 KB object code size  0.6/0.4/[0.1]
Matrix Compiler2: 3.37 KB object code size  0.4/0.6/[0.3]

